293
dimeropt.cif  0.000000
Pt -0.000000 -0.000000 -0.000000
P   2.254477  0.365226  0.245339
Cl  0.163206  0.006924 -2.341963
P  -2.329949 -0.009937 -0.113913
C  -0.114743 -0.054081  1.942367
C  -0.020737 -0.014698  7.432779
C  -0.071518  1.161062  6.679704
H  -0.079377  1.998557  7.129242
C  -0.115508 -0.060008  4.593125
C  -0.109513  1.136889  5.290882
H  -0.131751  1.956627  4.809745
C  -0.146819 -0.074894  3.141436
C  -0.036562 -1.212789  6.715245
H  -0.004993 -2.035998  7.187720
C  -0.098477 -1.227971  5.329143
H  -0.129144 -2.062541  4.876270
C  -2.813111  1.949872  0.096751
H  -2.457263  2.270892  0.962880
H  -2.365005  2.464640 -0.620264
C  -4.313565  2.247126  0.046149
H  -4.791799  1.651243  0.675506
H  -4.656191  2.068642 -0.867430
C  -4.579218  3.705786  0.413220
H  -5.453566  4.033119  0.086511
H  -4.495316  3.876575  1.388631
C  -3.422319  4.253140 -0.362373
H  -3.386924  5.229215 -0.257963
H  -3.539436  4.037834 -1.316390
H  -2.589202  3.859299 -0.040875
C  -3.241719 -0.697755  1.206224
H  -2.996687 -0.227321  2.041892
H  -4.204842 -0.539695  1.044380
C  -3.015505 -2.206363  1.405056
H  -3.426081 -2.667669  0.632748
H  -2.040865 -2.364919  1.351062
C  -3.518061 -2.904008  2.672588
H  -3.073641 -2.478740  3.444429
H  -4.485596 -2.718428  2.749594
C  -3.330969 -4.409743  2.801295
H  -3.684216 -4.706824  3.664310
H  -2.373489 -4.623536  2.750145
H  -3.805292 -4.862585  2.075596
C  -3.245157 -0.430960 -1.569791
H  -4.212662 -0.349851 -1.375293
H  -3.027282  0.217777 -2.283945
C  -2.964031 -1.825408 -2.073768
H  -3.176426 -2.482806 -1.364824
H  -2.002455 -1.911274 -2.293249
C  -3.804457 -2.130941 -3.322702
H  -4.761112 -2.094071 -3.068502
H  -3.647223 -1.411843 -3.985373
C  -3.549478 -3.458971 -3.996509
H  -4.113657 -3.535926 -4.790718
H  -3.753422 -4.185474 -3.372572
H  -2.604713 -3.511774 -4.259007
C   2.479131  1.742724  1.715372
H   1.947654  2.546034  1.488058
H   2.120579  1.373283  2.561382
C   3.906463  2.145486  1.924276
H   4.334384  2.350038  1.056715
H   4.408914  1.409886  2.357835
C   3.906872  3.371384  2.809115
H   4.855675  3.621000  2.936432
H   3.494506  4.096450  2.277679
C   3.273813  3.433349  4.160392
H   3.417813  4.321680  4.547312
H   3.676952  2.754516  4.740976
H   2.311742  3.264503  4.078826
C   3.155760 -0.952478  0.972688
H   4.052569 -0.630796  1.243015
H   2.684285 -1.268527  1.783334
C   3.303379 -2.087513  0.002976
H   3.850398 -1.745757 -0.746760
H   2.400533 -2.259771 -0.364269
C   3.881430 -3.444133  0.368668
H   4.753846 -3.279972  0.810331
H   3.285903 -3.837993  1.055529
C   4.099088 -4.489861 -0.682393
H   4.477471 -5.298162 -0.276030
H   4.729158 -4.149433 -1.361247
H   3.249596 -4.709042 -1.116965
C   3.074063  1.153423 -1.169069
H   4.038276  1.250481 -0.968236
H   2.988031  0.563330 -1.958926
C   2.502557  2.523488 -1.511621
H   1.556377  2.386321 -1.769907
H   2.496110  3.052605 -0.675018
C   3.128046  3.385452 -2.581100
H   2.657771  4.255410 -2.648480
H   4.083611  3.560840 -2.371962
C   2.997733  2.609137 -3.851239
H   3.382531  3.125228 -4.588195
H   2.050504  2.437646 -4.029210
H   3.475102  1.758479 -3.760924
Pt -0.000000 -0.000000 16.342729
P  -2.254477 -0.365226 16.097390
P   2.329949  0.009937 16.456642
C   0.114743  0.054081 14.400362
C   0.020737  0.014698  8.909950
C   0.071518 -1.161062  9.663026
H   0.079377 -1.998557  9.213488
C   0.115508  0.060008 11.749605
C   0.109513 -1.136889 11.051848
H   0.131751 -1.956627 11.532984
C   0.146819  0.074894 13.201293
C   0.036562  1.212789  9.627485
H   0.004993  2.035998  9.155009
C   0.098477  1.227971 11.013587
H   0.129144  2.062541 11.466460
C   2.813111 -1.949872 16.245979
H   2.457263 -2.270892 15.379850
H   2.365005 -2.464640 16.962993
C   4.313565 -2.247126 16.296580
H   4.791799 -1.651243 15.667223
H   4.656191 -2.068642 17.210159
C   4.579218 -3.705786 15.929509
H   5.453566 -4.033119 16.256219
H   4.495316 -3.876575 14.954098
C   3.422319 -4.253140 16.705102
H   3.386924 -5.229215 16.600692
H   3.539436 -4.037834 17.659120
H   2.589202 -3.859299 16.383605
C   3.241719  0.697755 15.136506
H   2.996687  0.227321 14.300838
H   4.204842  0.539695 15.298350
C   3.015505  2.206363 14.937674
H   3.426081  2.667669 15.709982
H   2.040865  2.364919 14.991668
C   3.518061  2.904008 13.670141
H   3.073641  2.478740 12.898301
H   4.485596  2.718428 13.593136
C   3.330969  4.409743 13.541435
H   3.684216  4.706824 12.678419
H   2.373489  4.623536 13.592585
H   3.805292  4.862585 14.267134
C   3.245157  0.430960 17.912521
H   4.212662  0.349851 17.718023
H   3.027282 -0.217777 18.626675
C   2.964031  1.825408 18.416497
H   3.176426  2.482806 17.707553
H   2.002455  1.911274 18.635979
C   3.804457  2.130941 19.665431
H   4.761112  2.094071 19.411231
H   3.647223  1.411843 20.328102
C   3.549478  3.458971 20.339238
H   4.113657  3.535926 21.133448
H   3.753422  4.185474 19.715302
H   2.604713  3.511774 20.601736
C  -2.479131 -1.742724 14.627357
H  -1.947654 -2.546034 14.854672
H  -2.120579 -1.373283 13.781347
C  -3.906463 -2.145486 14.418453
H  -4.334384 -2.350038 15.286015
H  -4.408914 -1.409886 13.984894
C  -3.906872 -3.371384 13.533615
H  -4.855675 -3.621000 13.406298
H  -3.494506 -4.096450 14.065051
C  -3.273813 -3.433349 12.182338
H  -3.417813 -4.321680 11.795418
H  -3.676952 -2.754516 11.601754
H  -2.311742 -3.264503 12.263903
C  -3.155760  0.952478 15.370042
H  -4.052569  0.630796 15.099715
H  -2.684285  1.268527 14.559395
C  -3.303379  2.087513 16.339753
H  -3.850398  1.745757 17.089489
H  -2.400533  2.259771 16.706998
C  -3.881430  3.444133 15.974061
H  -4.753846  3.279972 15.532398
H  -3.285903  3.837993 15.287201
C  -4.099088  4.489861 17.025123
H  -4.477471  5.298162 16.618760
H  -4.729158  4.149433 17.703976
H  -3.249596  4.709042 17.459694
C  -3.074063 -1.153423 17.511798
H  -4.038276 -1.250481 17.310965
H  -2.988031 -0.563330 18.301656
C  -2.502557 -2.523488 17.854351
H  -1.556377 -2.386321 18.112636
H  -2.496110 -3.052605 17.017748
C  -3.128046 -3.385452 18.923830
H  -2.657771 -4.255410 18.991209
H  -4.083611 -3.560840 18.714691
C  -2.997733 -2.609137 20.193968
H  -3.382531 -3.125228 20.930925
H  -2.050504 -2.437646 20.371940
H  -3.475102 -1.758479 20.103653
Pt -0.000000 -0.000000 32.685459
P  -2.254477 -0.365226 32.440120
Cl -0.163206 -0.006924 35.027422
P   2.329949  0.009937 32.799372
C   0.114743  0.054081 30.743092
C   0.020737  0.014698 25.252679
C   0.071518 -1.161062 26.005755
H   0.079377 -1.998557 25.556217
C   0.115508  0.060008 28.092334
C   0.109513 -1.136889 27.394577
H   0.131751 -1.956627 27.875714
C   0.146819  0.074894 29.544022
C   0.036562  1.212789 25.970214
H   0.004993  2.035998 25.497739
C   0.098477  1.227971 27.356316
H   0.129144  2.062541 27.809189
C   2.813111 -1.949872 32.588708
H   2.457263 -2.270892 31.722579
H   2.365005 -2.464640 33.305722
C   4.313565 -2.247126 32.639309
H   4.791799 -1.651243 32.009952
H   4.656191 -2.068642 33.552889
C   4.579218 -3.705786 32.272239
H   5.453566 -4.033119 32.598948
H   4.495316 -3.876575 31.296827
C   3.422319 -4.253140 33.047832
H   3.386924 -5.229215 32.943422
H   3.539436 -4.037834 34.001849
H   2.589202 -3.859299 32.726334
C   3.241719  0.697755 31.479235
H   2.996687  0.227321 30.643567
H   4.204842  0.539695 31.641079
C   3.015505  2.206363 31.280403
H   3.426081  2.667669 32.052711
H   2.040865  2.364919 31.334397
C   3.518061  2.904008 30.012871
H   3.073641  2.478740 29.241030
H   4.485596  2.718428 29.935865
C   3.330969  4.409743 29.884164
H   3.684216  4.706824 29.021149
H   2.373489  4.623536 29.935314
H   3.805292  4.862585 30.609863
C   3.245157  0.430960 34.255250
H   4.212662  0.349851 34.060752
H   3.027282 -0.217777 34.969404
C   2.964031  1.825408 34.759227
H   3.176426  2.482806 34.050282
H   2.002455  1.911274 34.978708
C   3.804457  2.130941 36.008161
H   4.761112  2.094071 35.753961
H   3.647223  1.411843 36.670831
C   3.549478  3.458971 36.681968
H   4.113657  3.535926 37.476177
H   3.753422  4.185474 36.058031
H   2.604713  3.511774 36.944466
C  -2.479131 -1.742724 30.970087
H  -1.947654 -2.546034 31.197401
H  -2.120579 -1.373283 30.124077
C  -3.906463 -2.145486 30.761183
H  -4.334384 -2.350038 31.628744
H  -4.408914 -1.409886 30.327624
C  -3.906872 -3.371384 29.876344
H  -4.855675 -3.621000 29.749027
H  -3.494506 -4.096450 30.407780
C  -3.273813 -3.433349 28.525067
H  -3.417813 -4.321680 28.138147
H  -3.676952 -2.754516 27.944483
H  -2.311742 -3.264503 28.606632
C  -3.155760  0.952478 31.712771
H  -4.052569  0.630796 31.442444
H  -2.684285  1.268527 30.902125
C  -3.303379  2.087513 32.682483
H  -3.850398  1.745757 33.432218
H  -2.400533  2.259771 33.049728
C  -3.881430  3.444133 32.316790
H  -4.753846  3.279972 31.875128
H  -3.285903  3.837993 31.629930
C  -4.099088  4.489861 33.367852
H  -4.477471  5.298162 32.961489
H  -4.729158  4.149433 34.046706
H  -3.249596  4.709042 33.802423
C  -3.074063 -1.153423 33.854528
H  -4.038276 -1.250481 33.653695
H  -2.988031 -0.563330 34.644385
C  -2.502557 -2.523488 34.197080
H  -1.556377 -2.386321 34.455366
H  -2.496110 -3.052605 33.360477
C  -3.128046 -3.385452 35.266559
H  -2.657771 -4.255410 35.333939
H  -4.083611 -3.560840 35.057421
C  -2.997733 -2.609137 36.536698
H  -3.382531 -3.125228 37.273654
H  -2.050504 -2.437646 36.714669
H  -3.475102 -1.758479 36.446383
C  -0.114743 -0.054081 18.285097
C  -0.020737 -0.014698 23.775509
C  -0.071518  1.161062 23.022433
H  -0.079377  1.998557 23.471971
C  -0.115508 -0.060008 20.935854
C  -0.109513  1.136889 21.633611
H  -0.131751  1.956627 21.152475
C  -0.146819 -0.074894 19.484166
C  -0.036562 -1.212789 23.057974
H  -0.004993 -2.035998 23.530450
C  -0.098477 -1.227971 21.671872
H  -0.129144 -2.062541 21.218999
